
&MESH ID='Mesh01', IJK=75,75,50, XB=0.0,3.0,0.0,3.0,0.0,2.0/


&REAC ID='Reaction1',
      FUEL='PROPANE',
      SOOT_YIELD=0.05/

&DEVC ID='CT->OUT', QUANTITY='TIME', XYZ=0.0,0.0,0.0, SETPOINT=30.0, INITIAL_STATE=.TRUE./

&MATL ID='S',
      SPECIFIC_HEAT=1.4,
      CONDUCTIVITY=0.034,
      DENSITY=22.0/
&MATL ID='W',
      SPECIFIC_HEAT_RAMP='W_SPECIFIC_HEAT_RAMP',
      CONDUCTIVITY_RAMP='W_CONDUCTIVITY_RAMP',
      DENSITY=450.0/
&RAMP ID='W_SPECIFIC_HEAT_RAMP', T=20.0, F=1.2/
&RAMP ID='W_SPECIFIC_HEAT_RAMP', T=500.0, F=3.0/
&RAMP ID='W_CONDUCTIVITY_RAMP', T=20.0, F=0.13/
&RAMP ID='W_CONDUCTIVITY_RAMP', T=500.0, F=0.29/
&MATL ID='SL',
      SPECIFIC_HEAT=2.26,
      CONDUCTIVITY=0.33,
      DENSITY=960.0/
&MATL ID='P',
      SPECIFIC_HEAT=1.47,
      CONDUCTIVITY=0.17,
      DENSITY=600.0/

&SURF ID='DD',
      ADIABATIC=.TRUE./
&SURF ID='SOFA',
      FYI='Report of the Technical Investigation of The Station Nightclub Fire',
      RGB=113,90,74,
      HRRPUA=200.0,
      IGNITION_TEMPERATURE=370.0,
      BURN_AWAY=.TRUE.,
      MATL_ID(1,1)='S',
      MATL_MASS_FRACTION(1,1)=1.0,
      THICKNESS(1)=0.1/
&SURF ID='CURTAIN',
      RGB=203,224,220,
      TRANSPARENCY=0.8,
      HRRPUA=200.0,
      IGNITION_TEMPERATURE=380.0,
      BURN_AWAY=.TRUE.,
      MATL_ID(1,1)='S',
      MATL_MASS_FRACTION(1,1)=1.0,
      THICKNESS(1)=1.0E-3/
&SURF ID='WOOD',
      RGB=200,140,40,
      HRRPUA=180.0,
      IGNITION_TEMPERATURE=360.0,
      BURN_AWAY=.TRUE.,
      MATL_ID(1,1)='W',
      MATL_MASS_FRACTION(1,1)=1.0,
      THICKNESS(1)=5.0E-3/
&SURF ID='COMPUTER',
      RGB=160,160,160,
      HRRPUA=230.0,
      HEAT_OF_VAPORIZATION=700.0,
      IGNITION_TEMPERATURE=320.0,
      BURN_AWAY=.TRUE.,
      MATL_ID(1,1)='SL',
      MATL_MASS_FRACTION(1,1)=1.0,
      THICKNESS(1)=3.0E-3/
&SURF ID='BOOK',
      RGB=211,206,141,
      HRRPUA=180.0,
      HEAT_OF_VAPORIZATION=700.0,
      IGNITION_TEMPERATURE=320.0,
      BURN_AWAY=.TRUE.,
      MATL_ID(1,1)='P',
      MATL_MASS_FRACTION(1,1)=1.0,
      THICKNESS(1)=0.05/
&SURF ID='HEATER',
      COLOR='RED',
      TMP_FRONT=800.0/

&OBST ID='Obstruction #1', XB=0.0,0.8,0.8,1.6,0.24,0.4, SURF_ID='SOFA'/ 
&OBST ID='Obstruction #2', XB=0.0,0.12,0.8,1.6,0.4,0.92, SURF_ID='SOFA'/ 
&OBST ID='Obstruction #3', XB=0.0,0.76,1.6,1.72,0.56,0.6, SURF_ID='WOOD'/ 
&OBST ID='Obstruction #4', XB=0.0,0.04,1.6,1.72,0.0,0.56, SURF_ID='WOOD'/ 
&OBST ID='Obstruction #5', XB=0.72,0.76,1.6,1.72,0.0,0.56, SURF_ID='WOOD'/ 
&OBST ID='Obstruction #6', XB=0.04,0.72,1.6,1.72,0.0,0.56, SURF_ID='SOFA'/ 
&OBST ID='Obstruction #7', XB=0.0,0.76,0.72,0.8,0.56,0.6, SURF_ID='WOOD'/ 
&OBST ID='Obstruction #8', XB=0.0,0.04,0.72,0.8,0.0,0.56, SURF_ID='WOOD'/ 
&OBST ID='Obstruction #9', XB=0.72,0.76,0.72,0.8,0.0,0.56, SURF_ID='WOOD'/ 
&OBST ID='Obstruction #10', XB=0.04,0.72,0.72,0.8,0.0,0.56, SURF_ID='SOFA'/ 
&OBST ID='Obstruction #11', XB=0.2,0.6,1.46,1.5,0.42,0.44, SURF_ID='HEATER', DEVC_ID='CT->OUT'/ 
&OBST ID='Obstruction #12', XB=0.04,0.48,1.8,1.84,0.0,1.52, SURF_ID='WOOD'/ 
&OBST ID='Obstruction #13', XB=0.04,0.48,2.96,3.0,0.0,1.52, SURF_ID='WOOD'/ 
&OBST ID='Obstruction #14', XB=0.04,0.08,1.84,2.96,0.0,1.52, SURF_ID='WOOD'/ 
&OBST ID='Obstruction #15', XB=0.08,0.48,1.84,2.96,0.04,0.08, SURF_ID='WOOD'/ 
&OBST ID='Obstruction #16', XB=0.08,0.48,1.84,2.96,0.56,0.6, SURF_ID='WOOD'/ 
&OBST ID='Obstruction #17', XB=0.08,0.48,1.84,2.96,0.84,0.88, SURF_ID='WOOD'/ 
&OBST ID='Obstruction #18', XB=0.08,0.48,1.84,2.96,1.16,1.2, SURF_ID='WOOD'/ 
&OBST ID='Obstruction #19', XB=0.08,0.48,1.84,2.96,1.48,1.52, SURF_ID='WOOD'/ 
&OBST ID='Obstruction #20', XB=0.8,2.0,2.32,3.0,0.76,0.8, SURF_ID='WOOD'/ 
&OBST ID='Obstruction #21', XB=0.8,0.84,2.32,3.0,0.0,0.76, SURF_ID='WOOD'/ 
&OBST ID='Obstruction #22', XB=1.96,2.0,2.32,3.0,0.0,0.76, SURF_ID='WOOD'/ 
&OBST ID='Obstruction #23', XB=1.08,1.12,2.32,3.0,0.0,0.76, SURF_ID='WOOD'/ 
&OBST ID='Obstruction #24', XB=1.68,1.72,2.32,3.0,0.0,0.76, SURF_ID='WOOD'/ 
&OBST ID='Obstruction #25', XB=1.2,1.6,2.08,2.48,0.44,0.48, SURF_ID='WOOD'/ 
&OBST ID='Obstruction #26', XB=1.2,1.24,2.08,2.12,0.0,0.44, COLOR='BLACK'/ 
&OBST ID='Obstruction #27', XB=1.56,1.6,2.08,2.12,0.0,0.44, COLOR='BLACK'/ 
&OBST ID='Obstruction #28', XB=1.2,1.24,2.44,2.48,0.0,0.44, COLOR='BLACK'/ 
&OBST ID='Obstruction #29', XB=1.56,1.6,2.44,2.48,0.0,0.44, COLOR='BLACK'/ 
&OBST ID='Obstruction #30', XB=1.2,1.6,2.04,2.08,0.66,0.8, SURF_ID='WOOD'/ 
&OBST ID='Obstruction #31', XB=1.2,1.24,2.08,2.12,0.48,0.8, COLOR='BLACK'/ 
&OBST ID='Obstruction #32', XB=1.56,1.6,2.08,2.12,0.48,0.8, COLOR='BLACK'/ 
&OBST ID='Obstruction #33', XB=0.88,1.34,2.6,2.88,0.8,1.16, SURF_ID='COMPUTER'/ 
&OBST ID='Obstruction #34', XB=1.36,1.76,2.6,2.88,0.8,0.88, RGB=160,160,160/ 
&OBST ID='Obstruction #35', XB=1.92,2.0,2.8,2.88,0.8,0.84, SURF_ID='COMPUTER'/ 
&OBST ID='Obstruction #36', XB=1.92,1.96,2.8,2.84,0.84,1.16, SURF_ID='COMPUTER'/ 
&OBST ID='Obstruction #37', XB=1.72,2.0,2.8,2.84,1.16,1.2, SURF_ID='COMPUTER'/ 
&OBST ID='Obstruction #38', XB=1.64,1.84,2.36,2.64,0.8,0.84, SURF_ID='BOOK'/ 
&OBST ID='Obstruction #39', XB=2.0,3.0,1.2,3.0,0.4,0.44, SURF_ID='WOOD'/ 
&OBST ID='Obstruction #40', XB=2.0,3.0,1.2,3.0,0.44,0.48, RGB=244,244,240, SURF_ID='CURTAIN'/ 
&OBST ID='Obstruction #41', XB=2.2,2.8,2.4,2.88,0.48,0.76, RGB=128,128,64, SURF_ID='CURTAIN'/ 
&OBST ID='Obstruction #42', XB=2.0,2.04,2.96,3.0,0.0,0.4, RGB=0,128,64/ 
&OBST ID='Obstruction #43', XB=2.96,3.0,2.96,3.0,0.0,0.4, RGB=0,128,64/ 
&OBST ID='Obstruction #44', XB=2.0,2.04,1.2,1.24,0.0,0.4, RGB=0,128,64/ 
&OBST ID='Obstruction #45', XB=2.96,3.0,1.2,1.24,0.0,0.4, RGB=0,128,64/ 
&OBST ID='Obstruction #46', XB=2.0,2.04,2.96,3.0,0.48,0.8, RGB=0,128,64/ 
&OBST ID='Obstruction #47', XB=2.96,3.0,2.96,3.0,0.48,0.8, RGB=0,128,64/ 
&OBST ID='Obstruction #48', XB=2.0,2.04,1.2,1.24,0.48,0.8, RGB=0,128,64/ 
&OBST ID='Obstruction #49', XB=2.96,3.0,1.2,1.24,0.48,0.8, RGB=0,128,64/ 
&OBST ID='Obstruction #50', XB=2.04,2.96,1.2,1.24,0.76,0.8, RGB=0,128,64/ 
&OBST ID='Obstruction #51', XB=2.04,2.96,2.96,3.0,0.76,0.8, RGB=0,128,64/ 
&OBST ID='Obstruction #52', XB=2.52,3.0,0.6,1.12,0.68,0.72, SURF_ID='WOOD'/ 
&OBST ID='Obstruction #53', XB=2.52,3.0,0.6,0.64,0.0,0.68, SURF_ID='WOOD'/ 
&OBST ID='Obstruction #54', XB=2.52,3.0,1.08,1.12,0.0,0.68, SURF_ID='WOOD'/ 
&OBST ID='Obstruction #55', XB=2.96,3.0,0.64,1.08,0.0,0.68, SURF_ID='WOOD'/ 
&OBST ID='Obstruction #56', XB=2.52,2.96,0.64,1.08,0.48,0.52, SURF_ID='WOOD'/ 
&OBST ID='Obstruction #57', XB=2.52,2.96,0.64,1.08,0.28,0.32, SURF_ID='WOOD'/ 
&OBST ID='Obstruction #58', XB=2.52,2.96,0.64,1.08,0.04,0.08, SURF_ID='WOOD'/ 
&OBST ID='Obstruction #59', XB=2.64,2.92,0.84,1.12,0.72,0.76, SURF_ID='BOOK'/ 

&VENT ID='Vent #1', SURF_ID='OPEN', XB=0.0,3.0,0.0,0.0,0.0,2.0/ 

&ISOF QUANTITY='TEMPERATURE', VALUE=600.0,300.0,100.0/
